*SPEF "ieee 1481-1999"
*DESIGN "counter_option1"
*DATE "11:11:11 Fri 11 11, 1111"
*VENDOR "OpenRCX"
*PROGRAM "Parallel Extraction"
*VERSION "1.0"
*DESIGN_FLOW "NAME_SCOPE LOCAL" "PIN_CAP NONE"
*DIVIDER /
*DELIMITER :
*BUS_DELIMITER []
*T_UNIT 1 NS
*C_UNIT 1 PF
*R_UNIT 1 OHM
*L_UNIT 1 HENRY

*NAME_MAP
*1 io_in[0]
*2 io_in[10]
*3 io_in[11]
*4 io_in[12]
*5 io_in[13]
*6 io_in[14]
*7 io_in[15]
*8 io_in[16]
*9 io_in[17]
*10 io_in[18]
*11 io_in[19]
*12 io_in[1]
*13 io_in[20]
*14 io_in[21]
*15 io_in[22]
*16 io_in[23]
*17 io_in[24]
*18 io_in[25]
*19 io_in[26]
*20 io_in[27]
*21 io_in[28]
*22 io_in[29]
*23 io_in[2]
*24 io_in[30]
*25 io_in[31]
*26 io_in[32]
*27 io_in[33]
*28 io_in[34]
*29 io_in[35]
*30 io_in[36]
*31 io_in[37]
*32 io_in[3]
*33 io_in[4]
*34 io_in[5]
*35 io_in[6]
*36 io_in[7]
*37 io_in[8]
*38 io_in[9]
*39 io_oeb[0]
*40 io_oeb[10]
*41 io_oeb[11]
*42 io_oeb[12]
*43 io_oeb[13]
*44 io_oeb[14]
*45 io_oeb[15]
*46 io_oeb[16]
*47 io_oeb[17]
*48 io_oeb[18]
*49 io_oeb[19]
*50 io_oeb[1]
*51 io_oeb[20]
*52 io_oeb[21]
*53 io_oeb[22]
*54 io_oeb[23]
*55 io_oeb[24]
*56 io_oeb[25]
*57 io_oeb[26]
*58 io_oeb[27]
*59 io_oeb[28]
*60 io_oeb[29]
*61 io_oeb[2]
*62 io_oeb[30]
*63 io_oeb[31]
*64 io_oeb[32]
*65 io_oeb[33]
*66 io_oeb[34]
*67 io_oeb[35]
*68 io_oeb[36]
*69 net218
*70 io_oeb[3]
*71 io_oeb[4]
*72 io_oeb[5]
*73 io_oeb[6]
*74 io_oeb[7]
*75 io_oeb[8]
*76 io_oeb[9]
*77 io_out[0]
*78 io_out[10]
*79 io_out[11]
*80 io_out[12]
*81 io_out[13]
*82 io_out[14]
*83 io_out[15]
*84 io_out[16]
*85 io_out[17]
*86 io_out[18]
*87 io_out[19]
*88 io_out[1]
*89 io_out[20]
*90 io_out[21]
*91 io_out[22]
*92 io_out[23]
*93 io_out[24]
*94 io_out[25]
*95 io_out[26]
*96 io_out[27]
*97 io_out[28]
*98 io_out[29]
*99 io_out[2]
*100 io_out[30]
*101 io_out[31]
*102 net219
*103 net220
*104 net221
*105 net222
*106 net223
*107 net224
*108 io_out[3]
*109 io_out[4]
*110 io_out[5]
*111 io_out[6]
*112 io_out[7]
*113 io_out[8]
*114 io_out[9]
*115 net225
*116 net226
*117 net227
*118 la_data_in[0]
*119 la_data_in[100]
*120 la_data_in[101]
*121 la_data_in[102]
*122 la_data_in[103]
*123 la_data_in[104]
*124 la_data_in[105]
*125 la_data_in[106]
*126 la_data_in[107]
*127 la_data_in[108]
*128 la_data_in[109]
*129 la_data_in[10]
*130 la_data_in[110]
*131 la_data_in[111]
*132 la_data_in[112]
*133 la_data_in[113]
*134 la_data_in[114]
*135 la_data_in[115]
*136 la_data_in[116]
*137 la_data_in[117]
*138 la_data_in[118]
*139 la_data_in[119]
*140 la_data_in[11]
*141 la_data_in[120]
*142 la_data_in[121]
*143 la_data_in[122]
*144 la_data_in[123]
*145 la_data_in[124]
*146 la_data_in[125]
*147 la_data_in[126]
*148 la_data_in[127]
*149 la_data_in[12]
*150 la_data_in[13]
*151 la_data_in[14]
*152 la_data_in[15]
*153 la_data_in[16]
*154 la_data_in[17]
*155 la_data_in[18]
*156 la_data_in[19]
*157 la_data_in[1]
*158 la_data_in[20]
*159 la_data_in[21]
*160 la_data_in[22]
*161 la_data_in[23]
*162 la_data_in[24]
*163 la_data_in[25]
*164 la_data_in[26]
*165 la_data_in[27]
*166 la_data_in[28]
*167 la_data_in[29]
*168 la_data_in[2]
*169 la_data_in[30]
*170 la_data_in[31]
*171 la_data_in[32]
*172 la_data_in[33]
*173 la_data_in[34]
*174 la_data_in[35]
*175 la_data_in[36]
*176 la_data_in[37]
*177 la_data_in[38]
*178 la_data_in[39]
*179 la_data_in[3]
*180 la_data_in[40]
*181 la_data_in[41]
*182 la_data_in[42]
*183 la_data_in[43]
*184 la_data_in[44]
*185 la_data_in[45]
*186 la_data_in[46]
*187 la_data_in[47]
*188 la_data_in[48]
*189 la_data_in[49]
*190 la_data_in[4]
*191 la_data_in[50]
*192 la_data_in[51]
*193 la_data_in[52]
*194 la_data_in[53]
*195 la_data_in[54]
*196 la_data_in[55]
*197 la_data_in[56]
*198 la_data_in[57]
*199 la_data_in[58]
*200 la_data_in[59]
*201 la_data_in[5]
*202 la_data_in[60]
*203 la_data_in[61]
*204 la_data_in[62]
*205 la_data_in[63]
*206 la_data_in[64]
*207 la_data_in[65]
*208 la_data_in[66]
*209 la_data_in[67]
*210 la_data_in[68]
*211 la_data_in[69]
*212 la_data_in[6]
*213 la_data_in[70]
*214 la_data_in[71]
*215 la_data_in[72]
*216 la_data_in[73]
*217 la_data_in[74]
*218 la_data_in[75]
*219 la_data_in[76]
*220 la_data_in[77]
*221 la_data_in[78]
*222 la_data_in[79]
*223 la_data_in[7]
*224 la_data_in[80]
*225 la_data_in[81]
*226 la_data_in[82]
*227 la_data_in[83]
*228 la_data_in[84]
*229 la_data_in[85]
*230 la_data_in[86]
*231 la_data_in[87]
*232 la_data_in[88]
*233 la_data_in[89]
*234 la_data_in[8]
*235 la_data_in[90]
*236 la_data_in[91]
*237 la_data_in[92]
*238 la_data_in[93]
*239 la_data_in[94]
*240 la_data_in[95]
*241 la_data_in[96]
*242 la_data_in[97]
*243 la_data_in[98]
*244 la_data_in[99]
*245 la_data_in[9]
*246 la_data_out[0]
*247 net296
*248 net297
*249 net298
*250 net299
*251 net300
*252 net301
*253 net302
*254 net303
*255 net304
*256 net305
*257 la_data_out[10]
*258 net306
*259 net307
*260 net308
*261 net309
*262 net310
*263 net311
*264 net312
*265 net313
*266 net314
*267 net315
*268 la_data_out[11]
*269 net316
*270 net317
*271 net318
*272 net319
*273 net320
*274 net321
*275 net322
*276 net323
*277 la_data_out[12]
*278 la_data_out[13]
*279 la_data_out[14]
*280 la_data_out[15]
*281 la_data_out[16]
*282 la_data_out[17]
*283 la_data_out[18]
*284 la_data_out[19]
*285 la_data_out[1]
*286 la_data_out[20]
*287 la_data_out[21]
*288 la_data_out[22]
*289 la_data_out[23]
*290 la_data_out[24]
*291 la_data_out[25]
*292 la_data_out[26]
*293 la_data_out[27]
*294 la_data_out[28]
*295 la_data_out[29]
*296 la_data_out[2]
*297 la_data_out[30]
*298 la_data_out[31]
*299 net228
*300 net229
*301 net230
*302 net231
*303 net232
*304 net233
*305 net234
*306 net235
*307 la_data_out[3]
*308 net236
*309 net237
*310 net238
*311 net239
*312 net240
*313 net241
*314 net242
*315 net243
*316 net244
*317 net245
*318 la_data_out[4]
*319 net246
*320 net247
*321 net248
*322 net249
*323 net250
*324 net251
*325 net252
*326 net253
*327 net254
*328 net255
*329 la_data_out[5]
*330 net256
*331 net257
*332 net258
*333 net259
*334 net260
*335 net261
*336 net262
*337 net263
*338 net264
*339 net265
*340 la_data_out[6]
*341 net266
*342 net267
*343 net268
*344 net269
*345 net270
*346 net271
*347 net272
*348 net273
*349 net274
*350 net275
*351 la_data_out[7]
*352 net276
*353 net277
*354 net278
*355 net279
*356 net280
*357 net281
*358 net282
*359 net283
*360 net284
*361 net285
*362 la_data_out[8]
*363 net286
*364 net287
*365 net288
*366 net289
*367 net290
*368 net291
*369 net292
*370 net293
*371 net294
*372 net295
*373 la_data_out[9]
*374 la_oenb[0]
*375 la_oenb[100]
*376 la_oenb[101]
*377 la_oenb[102]
*378 la_oenb[103]
*379 la_oenb[104]
*380 la_oenb[105]
*381 la_oenb[106]
*382 la_oenb[107]
*383 la_oenb[108]
*384 la_oenb[109]
*385 la_oenb[10]
*386 la_oenb[110]
*387 la_oenb[111]
*388 la_oenb[112]
*389 la_oenb[113]
*390 la_oenb[114]
*391 la_oenb[115]
*392 la_oenb[116]
*393 la_oenb[117]
*394 la_oenb[118]
*395 la_oenb[119]
*396 la_oenb[11]
*397 la_oenb[120]
*398 la_oenb[121]
*399 la_oenb[122]
*400 la_oenb[123]
*401 la_oenb[124]
*402 la_oenb[125]
*403 la_oenb[126]
*404 la_oenb[127]
*405 la_oenb[12]
*406 la_oenb[13]
*407 la_oenb[14]
*408 la_oenb[15]
*409 la_oenb[16]
*410 la_oenb[17]
*411 la_oenb[18]
*412 la_oenb[19]
*413 la_oenb[1]
*414 la_oenb[20]
*415 la_oenb[21]
*416 la_oenb[22]
*417 la_oenb[23]
*418 la_oenb[24]
*419 la_oenb[25]
*420 la_oenb[26]
*421 la_oenb[27]
*422 la_oenb[28]
*423 la_oenb[29]
*424 la_oenb[2]
*425 la_oenb[30]
*426 la_oenb[31]
*427 la_oenb[32]
*428 la_oenb[33]
*429 la_oenb[34]
*430 la_oenb[35]
*431 la_oenb[36]
*432 la_oenb[37]
*433 la_oenb[38]
*434 la_oenb[39]
*435 la_oenb[3]
*436 la_oenb[40]
*437 la_oenb[41]
*438 la_oenb[42]
*439 la_oenb[43]
*440 la_oenb[44]
*441 la_oenb[45]
*442 la_oenb[46]
*443 la_oenb[47]
*444 la_oenb[48]
*445 la_oenb[49]
*446 la_oenb[4]
*447 la_oenb[50]
*448 la_oenb[51]
*449 la_oenb[52]
*450 la_oenb[53]
*451 la_oenb[54]
*452 la_oenb[55]
*453 la_oenb[56]
*454 la_oenb[57]
*455 la_oenb[58]
*456 la_oenb[59]
*457 la_oenb[5]
*458 la_oenb[60]
*459 la_oenb[61]
*460 la_oenb[62]
*461 la_oenb[63]
*462 la_oenb[64]
*463 la_oenb[65]
*464 la_oenb[66]
*465 la_oenb[67]
*466 la_oenb[68]
*467 la_oenb[69]
*468 la_oenb[6]
*469 la_oenb[70]
*470 la_oenb[71]
*471 la_oenb[72]
*472 la_oenb[73]
*473 la_oenb[74]
*474 la_oenb[75]
*475 la_oenb[76]
*476 la_oenb[77]
*477 la_oenb[78]
*478 la_oenb[79]
*479 la_oenb[7]
*480 la_oenb[80]
*481 la_oenb[81]
*482 la_oenb[82]
*483 la_oenb[83]
*484 la_oenb[84]
*485 la_oenb[85]
*486 la_oenb[86]
*487 la_oenb[87]
*488 la_oenb[88]
*489 la_oenb[89]
*490 la_oenb[8]
*491 la_oenb[90]
*492 la_oenb[91]
*493 la_oenb[92]
*494 la_oenb[93]
*495 la_oenb[94]
*496 la_oenb[95]
*497 la_oenb[96]
*498 la_oenb[97]
*499 la_oenb[98]
*500 la_oenb[99]
*501 la_oenb[9]
*504 wb_clk_i
*505 wb_rst_i
*506 net324
*507 wbs_adr_i[0]
*508 wbs_adr_i[10]
*509 wbs_adr_i[11]
*510 wbs_adr_i[12]
*511 wbs_adr_i[13]
*512 wbs_adr_i[14]
*513 wbs_adr_i[15]
*514 wbs_adr_i[16]
*515 wbs_adr_i[17]
*516 wbs_adr_i[18]
*517 wbs_adr_i[19]
*518 wbs_adr_i[1]
*519 wbs_adr_i[20]
*520 wbs_adr_i[21]
*521 wbs_adr_i[22]
*522 wbs_adr_i[23]
*523 wbs_adr_i[24]
*524 wbs_adr_i[25]
*525 wbs_adr_i[26]
*526 wbs_adr_i[27]
*527 wbs_adr_i[28]
*528 wbs_adr_i[29]
*529 wbs_adr_i[2]
*530 wbs_adr_i[30]
*531 wbs_adr_i[31]
*532 wbs_adr_i[3]
*533 wbs_adr_i[4]
*534 wbs_adr_i[5]
*535 wbs_adr_i[6]
*536 wbs_adr_i[7]
*537 wbs_adr_i[8]
*538 wbs_adr_i[9]
*539 wbs_cyc_i
*540 wbs_dat_i[0]
*541 wbs_dat_i[10]
*542 wbs_dat_i[11]
*543 wbs_dat_i[12]
*544 wbs_dat_i[13]
*545 wbs_dat_i[14]
*546 wbs_dat_i[15]
*547 wbs_dat_i[16]
*548 wbs_dat_i[17]
*549 wbs_dat_i[18]
*550 wbs_dat_i[19]
*551 wbs_dat_i[1]
*552 wbs_dat_i[20]
*553 wbs_dat_i[21]
*554 wbs_dat_i[22]
*555 wbs_dat_i[23]
*556 wbs_dat_i[24]
*557 wbs_dat_i[25]
*558 wbs_dat_i[26]
*559 wbs_dat_i[27]
*560 wbs_dat_i[28]
*561 wbs_dat_i[29]
*562 wbs_dat_i[2]
*563 wbs_dat_i[30]
*564 wbs_dat_i[31]
*565 wbs_dat_i[3]
*566 wbs_dat_i[4]
*567 wbs_dat_i[5]
*568 wbs_dat_i[6]
*569 wbs_dat_i[7]
*570 wbs_dat_i[8]
*571 wbs_dat_i[9]
*572 wbs_dat_o[0]
*573 wbs_dat_o[10]
*574 wbs_dat_o[11]
*575 wbs_dat_o[12]
*576 wbs_dat_o[13]
*577 wbs_dat_o[14]
*578 wbs_dat_o[15]
*579 wbs_dat_o[16]
*580 wbs_dat_o[17]
*581 wbs_dat_o[18]
*582 wbs_dat_o[19]
*583 wbs_dat_o[1]
*584 wbs_dat_o[20]
*585 wbs_dat_o[21]
*586 wbs_dat_o[22]
*587 wbs_dat_o[23]
*588 wbs_dat_o[24]
*589 wbs_dat_o[25]
*590 wbs_dat_o[26]
*591 wbs_dat_o[27]
*592 wbs_dat_o[28]
*593 wbs_dat_o[29]
*594 wbs_dat_o[2]
*595 wbs_dat_o[30]
*596 wbs_dat_o[31]
*597 wbs_dat_o[3]
*598 wbs_dat_o[4]
*599 wbs_dat_o[5]
*600 wbs_dat_o[6]
*601 wbs_dat_o[7]
*602 wbs_dat_o[8]
*603 wbs_dat_o[9]
*604 wbs_sel_i[0]
*605 wbs_sel_i[1]
*606 wbs_sel_i[2]
*607 wbs_sel_i[3]
*608 wbs_stb_i
*609 wbs_we_i
*610 L0_count_a1\[0\]
*611 L0_count_a1\[10\]
*612 L0_count_a1\[11\]
*613 L0_count_a1\[12\]
*614 L0_count_a1\[13\]
*615 L0_count_a1\[14\]
*616 L0_count_a1\[15\]
*617 L0_count_a1\[16\]
*618 L0_count_a1\[17\]
*619 L0_count_a1\[18\]
*620 L0_count_a1\[19\]
*621 L0_count_a1\[1\]
*622 L0_count_a1\[20\]
*623 L0_count_a1\[21\]
*624 L0_count_a1\[22\]
*625 L0_count_a1\[23\]
*626 L0_count_a1\[24\]
*627 L0_count_a1\[25\]
*628 L0_count_a1\[26\]
*629 L0_count_a1\[27\]
*630 L0_count_a1\[28\]
*631 L0_count_a1\[29\]
*632 L0_count_a1\[2\]
*633 L0_count_a1\[30\]
*634 L0_count_a1\[31\]
*635 L0_count_a1\[3\]
*636 L0_count_a1\[4\]
*637 L0_count_a1\[5\]
*638 L0_count_a1\[6\]
*639 L0_count_a1\[7\]
*640 L0_count_a1\[8\]
*641 L0_count_a1\[9\]
*642 L0_ready_a0
*643 L0_rst_a1
*644 _000_
*645 _001_
*646 _002_
*647 _003_
*648 _004_
*649 _005_
*650 _006_
*651 _007_
*652 _008_
*653 _009_
*654 _010_
*655 _011_
*656 _012_
*657 _013_
*658 _014_
*659 _015_
*660 _016_
*661 _017_
*662 _018_
*663 _019_
*664 _020_
*665 _021_
*666 _022_
*667 _023_
*668 _024_
*669 _025_
*670 _026_
*671 _027_
*672 _028_
*673 _029_
*674 _030_
*675 _031_
*676 _032_
*677 _033_
*678 _034_
*679 _035_
*680 _036_
*681 _037_
*682 _038_
*683 _039_
*684 _040_
*685 _041_
*686 _042_
*687 _043_
*688 _044_
*689 _045_
*690 _046_
*691 _047_
*692 _048_
*693 _049_
*694 _050_
*695 _051_
*696 _052_
*697 _053_
*698 _054_
*699 _055_
*700 _056_
*701 _057_
*702 _058_
*703 _059_
*704 _060_
*705 _061_
*706 _062_
*707 _063_
*708 _064_
*709 _065_
*710 _066_
*711 _067_
*712 _068_
*713 _069_
*714 _070_
*715 _071_
*716 _072_
*717 _073_
*718 _074_
*719 _075_
*720 _076_
*721 _077_
*722 _078_
*723 _079_
*724 _080_
*725 _081_
*726 _082_
*727 _083_
*728 _084_
*729 _085_
*730 _086_
*731 _087_
*732 _088_
*733 _089_
*734 _090_
*735 _091_
*736 _092_
*737 _093_
*738 _094_
*739 _095_
*740 _096_
*741 _097_
*742 _098_
*743 _099_
*744 _100_
*745 _101_
*746 _102_
*747 _103_
*748 _104_
*749 _105_
*750 _106_
*751 _107_
*752 _108_
*753 _109_
*754 _110_
*755 _111_
*756 _112_
*757 _113_
*758 _114_
*759 _115_
*760 _116_
*761 _117_
*762 _118_
*763 _119_
*764 _120_
*765 _121_
*766 _122_
*767 _123_
*768 _124_
*769 _125_
*770 _126_
*771 _127_
*772 _128_
*773 _129_
*774 _130_
*775 _131_
*776 _132_
*777 _133_
*778 _134_
*779 _135_
*780 _136_
*781 _137_
*782 _138_
*783 _139_
*784 _140_
*785 _141_
*786 _142_
*787 _143_
*788 _144_
*789 _145_
*790 _146_
*791 _147_
*792 _148_
*793 _149_
*794 _150_
*795 _151_
*796 _152_
*797 _153_
*798 _154_
*799 _155_
*800 _156_
*801 _157_
*802 _158_
*803 _159_
*804 _160_
*805 _161_
*806 _162_
*807 _163_
*808 _164_
*809 _165_
*810 _166_
*811 _167_
*812 _168_
*813 _169_
*814 _170_
*815 _171_
*816 _172_
*817 _173_
*818 _174_
*819 _175_
*820 _176_
*821 _177_
*822 _178_
*823 _179_
*824 _180_
*825 _181_
*826 _182_
*827 _183_
*828 _184_
*829 _185_
*830 _186_
*831 _187_
*832 _188_
*833 _189_
*834 _190_
*835 _191_
*836 _192_
*837 _193_
*838 _194_
*839 _195_
*840 _196_
*841 _197_
*842 _198_
*843 _199_
*844 _200_
*845 _201_
*846 _202_
*847 _203_
*848 _204_
*849 _205_
*850 _206_
*851 _207_
*852 _208_
*853 _209_
*854 _210_
*855 _211_
*856 _212_
*857 _213_
*858 _214_
*859 _215_
*860 _216_
*861 _217_
*862 _218_
*863 _219_
*864 _220_
*865 _221_
*866 _222_
*867 _223_
*868 _224_
*869 _225_
*870 _226_
*871 _227_
*872 _228_
*873 _229_
*874 _230_
*875 _231_
*876 _232_
*877 _233_
*878 _234_
*879 _235_
*880 _236_
*881 _237_
*882 _238_
*883 _239_
*884 _240_
*885 _241_
*886 _242_
*887 clk
*888 clknet_0_clk
*889 clknet_2_0__leaf_clk
*890 clknet_2_1__leaf_clk
*891 clknet_2_2__leaf_clk
*892 clknet_2_3__leaf_clk
*893 net1
*894 net10
*895 net100
*896 net101
*897 net102
*898 net103
*899 net104
*900 net105
*901 net106
*902 net107
*903 net108
*904 net109
*905 net11
*906 net110
*907 net111
*908 net112
*909 net113
*910 net114
*911 net115
*912 net116
*913 net117
*914 net118
*915 net119
*916 net12
*917 net120
*918 net121
*919 net122
*920 net123
*921 net124
*922 net125
*923 net126
*924 net127
*925 net128
*926 net129
*927 net13
*928 net130
*929 net131
*930 net132
*931 net133
*932 net134
*933 net135
*934 net136
*935 net137
*936 net138
*937 net139
*938 net14
*939 net140
*940 net141
*941 net142
*942 net143
*943 net144
*944 net145
*945 net146
*946 net147
*947 net148
*948 net149
*949 net15
*950 net150
*951 net151
*952 net152
*953 net153
*954 net154
*955 net155
*956 net156
*957 net157
*958 net158
*959 net159
*960 net16
*961 net160
*962 net161
*963 net162
*964 net163
*965 net164
*966 net165
*967 net166
*968 net167
*969 net168
*970 net169
*971 net17
*972 net170
*973 net171
*974 net172
*975 net173
*976 net174
*977 net175
*978 net176
*979 net177
*980 net178
*981 net179
*982 net18
*983 net180
*984 net181
*985 net182
*986 net183
*987 net184
*988 net185
*989 net186
*990 net187
*991 net188
*992 net189
*993 net19
*994 net190
*995 net191
*996 net192
*997 net193
*998 net194
*999 net195
*1000 net196
*1001 net197
*1002 net198
*1003 net199
*1004 net2
*1005 net20
*1006 net200
*1007 net201
*1008 net202
*1009 net203
*1010 net204
*1011 net205
*1012 net206
*1013 net207
*1014 net208
*1015 net209
*1016 net21
*1017 net210
*1018 net211
*1019 net212
*1020 net213
*1021 net214
*1022 net215
*1023 net216
*1024 net217
*1025 net22
*1026 net23
*1027 net24
*1028 net25
*1029 net26
*1030 net27
*1031 net28
*1032 net29
*1033 net3
*1034 net30
*1035 net31
*1036 net32
*1037 net33
*1038 net34
*1039 net35
*1040 net36
*1041 net37
*1042 net38
*1043 net39
*1044 net4
*1045 net40
*1046 net41
*1047 net42
*1048 net43
*1049 net44
*1050 net45
*1051 net46
*1052 net47
*1053 net48
*1054 net49
*1055 net5
*1056 net50
*1057 net51
*1058 net52
*1059 net53
*1060 net54
*1061 net55
*1062 net56
*1063 net57
*1064 net58
*1065 net59
*1066 net6
*1067 net60
*1068 net61
*1069 net62
*1070 net63
*1071 net64
*1072 net65
*1073 net66
*1074 net67
*1075 net68
*1076 net69
*1077 net7
*1078 net70
*1079 net71
*1080 net72
*1081 net73
*1082 net74
*1083 net75
*1084 net76
*1085 net77
*1086 net78
*1087 net79
*1088 net8
*1089 net80
*1090 net81
*1091 net82
*1092 net83
*1093 net84
*1094 net85
*1095 net86
*1096 net87
*1097 net88
*1098 net89
*1099 net9
*1100 net90
*1101 net91
*1102 net92
*1103 net93
*1104 net94
*1105 net95
*1106 net96
*1107 net97
*1108 net98
*1109 net99
*1110 ANTENNA__243__A
*1111 ANTENNA__245__A
*1112 ANTENNA__248__A1
*1113 ANTENNA__248__A2
*1114 ANTENNA__249__A2
*1115 ANTENNA__249__A3
*1116 ANTENNA__249__A4
*1117 ANTENNA__250__A1
*1118 ANTENNA__250__A3
*1119 ANTENNA__251__A1
*1120 ANTENNA__251__A2
*1121 ANTENNA__251__A4
*1122 ANTENNA__253__B1
*1123 ANTENNA__254__A1
*1124 ANTENNA__254__A2
*1125 ANTENNA__254__B1
*1126 ANTENNA__255__A3
*1127 ANTENNA__255__B1
*1128 ANTENNA__256__B1
*1129 ANTENNA__258__B
*1130 ANTENNA__259__A
*1131 ANTENNA__261__A2
*1132 ANTENNA__261__A3
*1133 ANTENNA__261__B1
*1134 ANTENNA__261__B2
*1135 ANTENNA__263__A1
*1136 ANTENNA__264__A
*1137 ANTENNA__266__A
*1138 ANTENNA__266__B
*1139 ANTENNA__271__A
*1140 ANTENNA__272__A2
*1141 ANTENNA__272__A3
*1142 ANTENNA__272__B2
*1143 ANTENNA__274__B
*1144 ANTENNA__275__A1
*1145 ANTENNA__276__A
*1146 ANTENNA__279__A1
*1147 ANTENNA__279__B1
*1148 ANTENNA__280__B
*1149 ANTENNA__281__A
*1150 ANTENNA__282__A
*1151 ANTENNA__285__A
*1152 ANTENNA__286__A1
*1153 ANTENNA__286__B1
*1154 ANTENNA__287__A
*1155 ANTENNA__289__A2
*1156 ANTENNA__289__A3
*1157 ANTENNA__289__B2
*1158 ANTENNA__294__A1
*1159 ANTENNA__294__B1
*1160 ANTENNA__296__A
*1161 ANTENNA__298__A2
*1162 ANTENNA__298__A3
*1163 ANTENNA__298__B2
*1164 ANTENNA__304__B
*1165 ANTENNA__307__A1
*1166 ANTENNA__307__B1
*1167 ANTENNA__308__A
*1168 ANTENNA__310__A2
*1169 ANTENNA__310__A3
*1170 ANTENNA__310__B2
*1171 ANTENNA__313__B
*1172 ANTENNA__315__A
*1173 ANTENNA__316__A3
*1174 ANTENNA__318__A
*1175 ANTENNA__318__B
*1176 ANTENNA__318__C
*1177 ANTENNA__318__D
*1178 ANTENNA__319__A
*1179 ANTENNA__320__A1
*1180 ANTENNA__320__B1
*1181 ANTENNA__324__B
*1182 ANTENNA__325__B
*1183 ANTENNA__326__B1
*1184 ANTENNA__327__A1
*1185 ANTENNA__327__A2
*1186 ANTENNA__327__C1
*1187 ANTENNA__331__B
*1188 ANTENNA__332__C1
*1189 ANTENNA__333__A1
*1190 ANTENNA__333__B1
*1191 ANTENNA__334__A
*1192 ANTENNA__336__A2
*1193 ANTENNA__336__A3
*1194 ANTENNA__336__B2
*1195 ANTENNA__337__A
*1196 ANTENNA__338__B
*1197 ANTENNA__340__B
*1198 ANTENNA__342__A_N
*1199 ANTENNA__342__B
*1200 ANTENNA__342__C
*1201 ANTENNA__343__A1
*1202 ANTENNA__343__B1
*1203 ANTENNA__345__B
*1204 ANTENNA__346__B
*1205 ANTENNA__347__B
*1206 ANTENNA__348__A1
*1207 ANTENNA__348__B1
*1208 ANTENNA__349__C
*1209 ANTENNA__352__A
*1210 ANTENNA__352__B
*1211 ANTENNA__353__A1
*1212 ANTENNA__353__B2
*1213 ANTENNA__354__A
*1214 ANTENNA__355__A
*1215 ANTENNA__359__A
*1216 ANTENNA__360__A3
*1217 ANTENNA__360__B1
*1218 ANTENNA__360__B2
*1219 ANTENNA__361__A1
*1220 ANTENNA__361__C1
*1221 ANTENNA__362__A
*1222 ANTENNA__363__A
*1223 ANTENNA__364__A
*1224 ANTENNA__367__A_N
*1225 ANTENNA__367__C
*1226 ANTENNA__368__A1
*1227 ANTENNA__368__A2
*1228 ANTENNA__369__A
*1229 ANTENNA__371__A
*1230 ANTENNA__374__C1
*1231 ANTENNA__375__B1
*1232 ANTENNA__377__A
*1233 ANTENNA__380__C
*1234 ANTENNA__381__A
*1235 ANTENNA__382__A
*1236 ANTENNA__382__B
*1237 ANTENNA__383__A3
*1238 ANTENNA__383__B1
*1239 ANTENNA__384__A
*1240 ANTENNA__386__B
*1241 ANTENNA__387__B
*1242 ANTENNA__389__A1
*1243 ANTENNA__390__A
*1244 ANTENNA__391__A
*1245 ANTENNA__392__A
*1246 ANTENNA__393__A3
*1247 ANTENNA__393__B1
*1248 ANTENNA__395__A
*1249 ANTENNA__396__A
*1250 ANTENNA__398__A3
*1251 ANTENNA__399__D
*1252 ANTENNA__401__B
*1253 ANTENNA__402__S
*1254 ANTENNA__403__A
*1255 ANTENNA__403__B
*1256 ANTENNA__405__A3
*1257 ANTENNA__405__B1
*1258 ANTENNA__407__A
*1259 ANTENNA__409__A
*1260 ANTENNA__410__A
*1261 ANTENNA__412__A
*1262 ANTENNA__413__A
*1263 ANTENNA__414__A
*1264 ANTENNA__415__A3
*1265 ANTENNA__415__B1
*1266 ANTENNA__416__A
*1267 ANTENNA__417__A
*1268 ANTENNA__420__A
*1269 ANTENNA__421__B1
*1270 ANTENNA__425__A
*1271 ANTENNA__426__B1
*1272 ANTENNA__427__A
*1273 ANTENNA__428__A2
*1274 ANTENNA__430__B1
*1275 ANTENNA__434__A
*1276 ANTENNA__436__B1
*1277 ANTENNA__437__C
*1278 ANTENNA__438__B1
*1279 ANTENNA__441__A1
*1280 ANTENNA__441__A3
*1281 ANTENNA__441__B1
*1282 ANTENNA__442__A
*1283 ANTENNA__442__B
*1284 ANTENNA__442__C
*1285 ANTENNA__442__D
*1286 ANTENNA__443__A
*1287 ANTENNA__445__B1
*1288 ANTENNA__446__A
*1289 ANTENNA__447__B2
*1290 ANTENNA__450__B
*1291 ANTENNA__451__A
*1292 ANTENNA__452__A1
*1293 ANTENNA__452__C1
*1294 ANTENNA__453__A1
*1295 ANTENNA__453__B1
*1296 ANTENNA__455__B2
*1297 ANTENNA__456__A1
*1298 ANTENNA__456__B1
*1299 ANTENNA__457__A
*1300 ANTENNA__457__B
*1301 ANTENNA__459__B1
*1302 ANTENNA__462__A
*1303 ANTENNA__463__A
*1304 ANTENNA__464__B2
*1305 ANTENNA__465__A
*1306 ANTENNA__466__B
*1307 ANTENNA__467__A
*1308 ANTENNA__468__A
*1309 ANTENNA__468__B
*1310 ANTENNA__471__A2
*1311 ANTENNA__472__A3
*1312 ANTENNA__472__B1
*1313 ANTENNA__475__A3
*1314 ANTENNA__475__B2
*1315 ANTENNA__476__A
*1316 ANTENNA__476__C
*1317 ANTENNA__478__A
*1318 ANTENNA__478__B
*1319 ANTENNA__479__A
*1320 ANTENNA__480__A
*1321 ANTENNA__480__B
*1322 ANTENNA__482__A
*1323 ANTENNA__482__B
*1324 ANTENNA__484__A
*1325 ANTENNA__484__B
*1326 ANTENNA__486__A
*1327 ANTENNA__486__B
*1328 ANTENNA__488__A
*1329 ANTENNA__489__A
*1330 ANTENNA__490__A
*1331 ANTENNA__492__A
*1332 ANTENNA__494__A
*1333 ANTENNA__496__A
*1334 ANTENNA__498__A
*1335 ANTENNA__500__A
*1336 ANTENNA__501__A
*1337 ANTENNA__503__A
*1338 ANTENNA__505__A
*1339 ANTENNA__507__A
*1340 ANTENNA__509__A
*1341 ANTENNA__511__A
*1342 ANTENNA__512__A
*1343 ANTENNA__514__A
*1344 ANTENNA__516__A
*1345 ANTENNA__518__A
*1346 ANTENNA__519__A
*1347 ANTENNA__519__C
*1348 ANTENNA__520__A
*1349 ANTENNA__521__A
*1350 ANTENNA__523__A
*1351 ANTENNA__523__C
*1352 ANTENNA__524__A
*1353 ANTENNA__525__A
*1354 ANTENNA__527__A
*1355 ANTENNA__528__D
*1356 ANTENNA__529__A
*1357 ANTENNA__530__A_N
*1358 ANTENNA__530__B
*1359 ANTENNA__530__C
*1360 ANTENNA__531__A
*1361 ANTENNA__532__D
*1362 ANTENNA__533__A
*1363 ANTENNA__534__A
*1364 ANTENNA__536__A
*1365 ANTENNA__538__A
*1366 ANTENNA__540__A
*1367 ANTENNA__541__A
*1368 ANTENNA__542__A
*1369 ANTENNA__543__A1
*1370 ANTENNA__543__B1
*1371 ANTENNA__543__C1
*1372 ANTENNA__543__D1
*1373 ANTENNA__544__A
*1374 ANTENNA__545__A
*1375 ANTENNA__546__A
*1376 ANTENNA__546__B
*1377 ANTENNA__546__D
*1378 ANTENNA__547__A
*1379 ANTENNA__548__A
*1380 ANTENNA__548__C
*1381 ANTENNA__548__D
*1382 ANTENNA__549__A
*1383 ANTENNA__550__A2
*1384 ANTENNA__550__B1
*1385 ANTENNA__551__A0
*1386 ANTENNA__551__A1
*1387 ANTENNA__551__S
*1388 ANTENNA__553__CLK
*1389 ANTENNA__553__D
*1390 ANTENNA__554__CLK
*1391 ANTENNA__554__D
*1392 ANTENNA__555__CLK
*1393 ANTENNA__555__D
*1394 ANTENNA__556__CLK
*1395 ANTENNA__556__D
*1396 ANTENNA__557__CLK
*1397 ANTENNA__557__D
*1398 ANTENNA__558__CLK
*1399 ANTENNA__558__D
*1400 ANTENNA__559__CLK
*1401 ANTENNA__559__D
*1402 ANTENNA__560__CLK
*1403 ANTENNA__560__D
*1404 ANTENNA__561__CLK
*1405 ANTENNA__561__D
*1406 ANTENNA__562__D
*1407 ANTENNA__563__D
*1408 ANTENNA__564__D
*1409 ANTENNA__565__D
*1410 ANTENNA__566__D
*1411 ANTENNA__567__D
*1412 ANTENNA__568__CLK
*1413 ANTENNA__568__D
*1414 ANTENNA__569__CLK
*1415 ANTENNA__569__D
*1416 ANTENNA__570__CLK
*1417 ANTENNA__570__D
*1418 ANTENNA__571__CLK
*1419 ANTENNA__571__D
*1420 ANTENNA__572__CLK
*1421 ANTENNA__572__D
*1422 ANTENNA__573__CLK
*1423 ANTENNA__573__D
*1424 ANTENNA__574__CLK
*1425 ANTENNA__574__D
*1426 ANTENNA__575__CLK
*1427 ANTENNA__575__D
*1428 ANTENNA__576__CLK
*1429 ANTENNA__576__D
*1430 ANTENNA__577__CLK
*1431 ANTENNA__577__D
*1432 ANTENNA__578__CLK
*1433 ANTENNA__578__D
*1434 ANTENNA__579__CLK
*1435 ANTENNA__579__D
*1436 ANTENNA__580__CLK
*1437 ANTENNA__580__D
*1438 ANTENNA__581__CLK
*1439 ANTENNA__581__D
*1440 ANTENNA__582__CLK
*1441 ANTENNA__582__D
*1442 ANTENNA__583__CLK
*1443 ANTENNA__583__D
*1444 ANTENNA__584__CLK
*1445 ANTENNA__584__D
*1446 ANTENNA__585__CLK
*1447 ANTENNA__585__D
*1448 ANTENNA__705__A
*1449 ANTENNA__726__A
*1450 ANTENNA__727__A
*1451 ANTENNA__728__A
*1452 ANTENNA__729__A
*1453 ANTENNA__730__A
*1454 ANTENNA__731__A
*1455 ANTENNA__732__A
*1456 ANTENNA__733__A
*1457 ANTENNA__734__A
*1458 ANTENNA__735__A
*1459 ANTENNA__736__A
*1460 ANTENNA__737__A
*1461 ANTENNA__738__A
*1462 ANTENNA__739__A
*1463 ANTENNA__740__A
*1464 ANTENNA__741__A
*1465 ANTENNA__742__A
*1466 ANTENNA__743__A
*1467 ANTENNA__744__A
*1468 ANTENNA__745__A
*1469 ANTENNA__746__A
*1470 ANTENNA__747__A
*1471 ANTENNA__748__A
*1472 ANTENNA__749__A
*1473 ANTENNA__750__A
*1474 ANTENNA__751__A
*1475 ANTENNA__752__A
*1476 ANTENNA__753__A
*1477 ANTENNA__754__A
*1478 ANTENNA__755__A
*1479 ANTENNA__756__A
*1480 ANTENNA__757__A
*1481 ANTENNA__758__A
*1482 ANTENNA__759__A
*1483 ANTENNA__760__A
*1484 ANTENNA_clkbuf_0_clk_A
*1485 ANTENNA_clkbuf_2_0__f_clk_A
*1486 ANTENNA_clkbuf_2_1__f_clk_A
*1487 ANTENNA_clkbuf_2_2__f_clk_A
*1488 ANTENNA_clkbuf_2_3__f_clk_A
*1489 ANTENNA_input10_A
*1490 ANTENNA_input11_A
*1491 ANTENNA_input12_A
*1492 ANTENNA_input13_A
*1493 ANTENNA_input14_A
*1494 ANTENNA_input15_A
*1495 ANTENNA_input16_A
*1496 ANTENNA_input17_A
*1497 ANTENNA_input18_A
*1498 ANTENNA_input19_A
*1499 ANTENNA_input1_A
*1500 ANTENNA_input20_A
*1501 ANTENNA_input21_A
*1502 ANTENNA_input22_A
*1503 ANTENNA_input23_A
*1504 ANTENNA_input24_A
*1505 ANTENNA_input25_A
*1506 ANTENNA_input26_A
*1507 ANTENNA_input27_A
*1508 ANTENNA_input28_A
*1509 ANTENNA_input29_A
*1510 ANTENNA_input2_A
*1511 ANTENNA_input30_A
*1512 ANTENNA_input31_A
*1513 ANTENNA_input32_A
*1514 ANTENNA_input33_A
*1515 ANTENNA_input34_A
*1516 ANTENNA_input35_A
*1517 ANTENNA_input36_A
*1518 ANTENNA_input37_A
*1519 ANTENNA_input38_A
*1520 ANTENNA_input39_A
*1521 ANTENNA_input3_A
*1522 ANTENNA_input40_A
*1523 ANTENNA_input41_A
*1524 ANTENNA_input42_A
*1525 ANTENNA_input43_A
*1526 ANTENNA_input44_A
*1527 ANTENNA_input45_A
*1528 ANTENNA_input46_A
*1529 ANTENNA_input47_A
*1530 ANTENNA_input48_A
*1531 ANTENNA_input49_A
*1532 ANTENNA_input4_A
*1533 ANTENNA_input50_A
*1534 ANTENNA_input51_A
*1535 ANTENNA_input52_A
*1536 ANTENNA_input53_A
*1537 ANTENNA_input54_A
*1538 ANTENNA_input55_A
*1539 ANTENNA_input56_A
*1540 ANTENNA_input57_A
*1541 ANTENNA_input58_A
*1542 ANTENNA_input59_A
*1543 ANTENNA_input5_A
*1544 ANTENNA_input60_A
*1545 ANTENNA_input61_A
*1546 ANTENNA_input62_A
*1547 ANTENNA_input63_A
*1548 ANTENNA_input64_A
*1549 ANTENNA_input65_A
*1550 ANTENNA_input66_A
*1551 ANTENNA_input67_A
*1552 ANTENNA_input68_A
*1553 ANTENNA_input69_A
*1554 ANTENNA_input6_A
*1555 ANTENNA_input70_A
*1556 ANTENNA_input71_A
*1557 ANTENNA_input7_A
*1558 ANTENNA_input8_A
*1559 ANTENNA_input9_A
*1560 ANTENNA_output101_A
*1561 ANTENNA_output102_A
*1562 ANTENNA_output103_A
*1563 ANTENNA_output104_A
*1564 ANTENNA_output105_A
*1565 ANTENNA_output109_A
*1566 ANTENNA_output110_A
*1567 ANTENNA_output111_A
*1568 ANTENNA_output112_A
*1569 ANTENNA_output113_A
*1570 ANTENNA_output114_A
*1571 ANTENNA_output115_A
*1572 ANTENNA_output116_A
*1573 ANTENNA_output117_A
*1574 ANTENNA_output118_A
*1575 ANTENNA_output119_A
*1576 ANTENNA_output120_A
*1577 ANTENNA_output121_A
*1578 ANTENNA_output122_A
*1579 ANTENNA_output123_A
*1580 ANTENNA_output124_A
*1581 ANTENNA_output125_A
*1582 ANTENNA_output126_A
*1583 ANTENNA_output127_A
*1584 ANTENNA_output128_A
*1585 ANTENNA_output129_A
*1586 ANTENNA_output130_A
*1587 ANTENNA_output131_A
*1588 ANTENNA_output132_A
*1589 ANTENNA_output133_A
*1590 ANTENNA_output134_A
*1591 ANTENNA_output135_A
*1592 ANTENNA_output136_A
*1593 ANTENNA_output137_A
*1594 ANTENNA_output138_A
*1595 ANTENNA_output139_A
*1596 ANTENNA_output140_A
*1597 ANTENNA_output155_A
*1598 ANTENNA_output161_A
*1599 ANTENNA_output193_A
*1600 ANTENNA_output72_A
*1601 ANTENNA_output83_A
*1602 ANTENNA_output94_A
*1603 ANTENNA_repeater216_A
*1604 ANTENNA_repeater217_A
*1605 FILLER_0_1002
*1606 FILLER_0_1019
*1607 FILLER_0_1026
*1608 FILLER_0_1032
*1609 FILLER_0_1037
*1610 FILLER_0_1044
*1611 FILLER_0_1058
*1612 FILLER_0_1075
*1613 FILLER_0_1083
*1614 FILLER_0_1088
*1615 FILLER_0_109
*1616 FILLER_0_1096
*1617 FILLER_0_1112
*1618 FILLER_0_113
*1619 FILLER_0_1131
*1620 FILLER_0_1141
*1621 FILLER_0_1147
*1622 FILLER_0_1152
*1623 FILLER_0_1159
*1624 FILLER_0_1166
*1625 FILLER_0_1174
*1626 FILLER_0_1180
*1627 FILLER_0_1187
*1628 FILLER_0_1194
*1629 FILLER_0_1202
*1630 FILLER_0_1208
*1631 FILLER_0_1215
*1632 FILLER_0_1222
*1633 FILLER_0_1230
*1634 FILLER_0_1236
*1635 FILLER_0_1243
*1636 FILLER_0_125
*1637 FILLER_0_1250
*1638 FILLER_0_1258
*1639 FILLER_0_1264
*1640 FILLER_0_1271
*1641 FILLER_0_1278
*1642 FILLER_0_1286
*1643 FILLER_0_1292
*1644 FILLER_0_1296
*1645 FILLER_0_1300
*1646 FILLER_0_1309
*1647 FILLER_0_1315
*1648 FILLER_0_1320
*1649 FILLER_0_1327
*1650 FILLER_0_1336
*1651 FILLER_0_1348
*1652 FILLER_0_1355
*1653 FILLER_0_1359
*1654 FILLER_0_1363
*1655 FILLER_0_137
*1656 FILLER_0_1371
*1657 FILLER_0_1376
*1658 FILLER_0_1383
*1659 FILLER_0_1390
*1660 FILLER_0_1398
*1661 FILLER_0_1404
*1662 FILLER_0_141
*1663 FILLER_0_1411
*1664 FILLER_0_1418
*1665 FILLER_0_1426
*1666 FILLER_0_1432
*1667 FILLER_0_1439
*1668 FILLER_0_1446
*1669 FILLER_0_1454
*1670 FILLER_0_1460
*1671 FILLER_0_1467
*1672 FILLER_0_1474
*1673 FILLER_0_1482
*1674 FILLER_0_1488
*1675 FILLER_0_1495
*1676 FILLER_0_15
*1677 FILLER_0_1502
*1678 FILLER_0_1510
*1679 FILLER_0_1516
*1680 FILLER_0_1523
*1681 FILLER_0_153
*1682 FILLER_0_1530
*1683 FILLER_0_1538
*1684 FILLER_0_1544
*1685 FILLER_0_1548
*1686 FILLER_0_1552
*1687 FILLER_0_1561
*1688 FILLER_0_1567
*1689 FILLER_0_1572
*1690 FILLER_0_1579
*1691 FILLER_0_1588
*1692 FILLER_0_1600
*1693 FILLER_0_1607
*1694 FILLER_0_1611
*1695 FILLER_0_1615
*1696 FILLER_0_1623
*1697 FILLER_0_1628
*1698 FILLER_0_1635
*1699 FILLER_0_1642